!-Generator IDFEditor 1.51
!-Option SortedOrder

!-NOTE: All comments with '!-' are ignored by the IDFEditor and are generated automatically.
!-      Use '!' comments if they need to be retained when using the IDFEditor.


!-   ===========  ALL OBJECTS IN CLASS: VERSION ===========

Version,
    9.5;                     !- Version Identifier


!-   ===========  ALL OBJECTS IN CLASS: SIMULATIONCONTROL ===========

SimulationControl,
    No,                      !- Do Zone Sizing Calculation
    No,                      !- Do System Sizing Calculation
    No,                      !- Do Plant Sizing Calculation
    No,                      !- Run Simulation for Sizing Periods
    Yes,                     !- Run Simulation for Weather File Run Periods
    No,                      !- Do HVAC Sizing Simulation for Sizing Periods
    1;                       !- Maximum Number of HVAC Sizing Simulation Passes


!-   ===========  ALL OBJECTS IN CLASS: BUILDING ===========

Building,
    Building 1,              !- Name
    ,                        !- North Axis {deg}
    ,                        !- Terrain
    ,                        !- Loads Convergence Tolerance Value {W}
    ,                        !- Temperature Convergence Tolerance Value {deltaC}
    ,                        !- Solar Distribution
    ,                        !- Maximum Number of Warmup Days
    ;                        !- Minimum Number of Warmup Days


!-   ===========  ALL OBJECTS IN CLASS: SHADOWCALCULATION ===========

ShadowCalculation,
    PolygonClipping,         !- Shading Calculation Method
    Periodic,                !- Shading Calculation Update Frequency Method
    20,                      !- Shading Calculation Update Frequency
    15000,                   !- Maximum Figures in Shadow Overlap Calculations
    SutherlandHodgman;       !- Polygon Clipping Algorithm


!-   ===========  ALL OBJECTS IN CLASS: HEATBALANCEALGORITHM ===========

HeatBalanceAlgorithm,
    ConductionTransferFunction,  !- Algorithm
    200;                     !- Surface Temperature Upper Limit {C}


!-   ===========  ALL OBJECTS IN CLASS: TIMESTEP ===========

Timestep,
    6;                       !- Number of Timesteps per Hour


!-   ===========  ALL OBJECTS IN CLASS: SITE:LOCATION ===========

Site:Location,
    Temixco,                 !- Name
    18.85,                   !- Latitude {deg}
    -99.14,                  !- Longitude {deg}
    -6,                      !- Time Zone {hr}
    1280;                    !- Elevation {m}


!-   ===========  ALL OBJECTS IN CLASS: RUNPERIOD ===========

RunPeriod,
    Run Period 1,            !- Name
    5,                       !- Begin Month
    3,                       !- Begin Day of Month
    2006,                    !- Begin Year
    6,                       !- End Month
    25,                      !- End Day of Month
    2006,                    !- End Year
    Wednesday,               !- Day of Week for Start Day
    No,                      !- Use Weather File Holidays and Special Days
    No,                      !- Use Weather File Daylight Saving Period
    No,                      !- Apply Weekend Holiday Rule
    Yes,                     !- Use Weather File Rain Indicators
    Yes;                     !- Use Weather File Snow Indicators


!-   ===========  ALL OBJECTS IN CLASS: SITE:GROUNDTEMPERATURE:BUILDINGSURFACE ===========

Site:GroundTemperature:BuildingSurface,
    21,                      !- January Ground Temperature {C}
    21,                      !- February Ground Temperature {C}
    21,                      !- March Ground Temperature {C}
    21,                      !- April Ground Temperature {C}
    21,                      !- May Ground Temperature {C}
    21,                      !- June Ground Temperature {C}
    21,                      !- July Ground Temperature {C}
    21,                      !- August Ground Temperature {C}
    21,                      !- September Ground Temperature {C}
    21,                      !- October Ground Temperature {C}
    21,                      !- November Ground Temperature {C}
    21;                      !- December Ground Temperature {C}


!-   ===========  ALL OBJECTS IN CLASS: SCHEDULETYPELIMITS ===========

ScheduleTypeLimits,
    Prorcentaje,             !- Name
    ,                        !- Lower Limit Value
    ,                        !- Upper Limit Value
    Discrete,                !- Numeric Type
    Percent;                 !- Unit Type


!-   ===========  ALL OBJECTS IN CLASS: SCHEDULE:COMPACT ===========

Schedule:Compact,
    LapMac,                  !- Name
    Prorcentaje,             !- Schedule Type Limits Name
    Through: 12/31,          !- Field 1
    For: Weekdays,           !- Field 2
    Until: 9:00,             !- Field 3
    .29,                     !- Field 4
    Until: 18:00,            !- Field 5
    1,                       !- Field 6
    Until: 24:00,            !- Field 7
    .29,                     !- Field 8
    For Weekends,            !- Field 9
    Until 24:00,             !- Field 10
    .29;                     !- Field 11

Schedule:Compact,
    HPLaser,                 !- Name
    Prorcentaje,             !- Schedule Type Limits Name
    Through: 12/31,          !- Field 1
    For: Weekdays,           !- Field 2
    Until: 9:00,             !- Field 3
    .15,                     !- Field 4
    Until: 18:00,            !- Field 5
    1,                       !- Field 6
    Until: 24:00,            !- Field 7
    .15,                     !- Field 8
    For: Weekends,           !- Field 9
    Until: 24:00,            !- Field 10
    .15;                     !- Field 11

Schedule:Compact,
    Telephone,               !- Name
    Prorcentaje,             !- Schedule Type Limits Name
    Through: 12/31,          !- Field 1
    For: AllDays,            !- Field 2
    Until: 24:00,            !- Field 3
    1;                       !- Field 4

Schedule:Compact,
    Dell,                    !- Name
    Prorcentaje,             !- Schedule Type Limits Name
    Through: 12/31,          !- Field 1
    For: Weekdays,           !- Field 2
    Until: 9:00,             !- Field 3
    .025,                    !- Field 4
    Until: 13:00,            !- Field 5
    1,                       !- Field 6
    Until: 14:30,            !- Field 7
    .05,                     !- Field 8
    Until: 24:00,            !- Field 9
    .025,                    !- Field 10
    For: Weekends,           !- Field 11
    Until: 24:00,            !- Field 12
    .025;                    !- Field 13

Schedule:Compact,
    CPUG,                    !- Name
    Prorcentaje,             !- Schedule Type Limits Name
    Through: 12/31,          !- Field 1
    For: Weekdays,           !- Field 2
    Until: 9:00,             !- Field 3
    .17,                     !- Field 4
    Until: 18:00,            !- Field 5
    1,                       !- Field 6
    Until: 24:00,            !- Field 7
    .17,                     !- Field 8
    For Weekends,            !- Field 9
    Until 24:00,             !- Field 10
    .17;                     !- Field 11

Schedule:Compact,
    AGILENT,                 !- Name
    Prorcentaje,             !- Schedule Type Limits Name
    Through: 12:31,          !- Field 1
    For: Weekdays,           !- Field 2
    Until: 9:00,             !- Field 3
    .48,                     !- Field 4
    Until: 16:00,            !- Field 5
    1,                       !- Field 6
    Until: 24:00,            !- Field 7
    .48;                     !- Field 8

Schedule:Compact,
    ReguladorSteren,         !- Name
    Prorcentaje,             !- Schedule Type Limits Name
    Through: 12/31,          !- Field 1
    For: AllDays,            !- Field 2
    Until: 24:00,            !- Field 3
    1;                       !- Field 4


!-   ===========  ALL OBJECTS IN CLASS: MATERIAL ===========

Material,
    Aluminio,                !- Name
    MediumSmooth,            !- Roughness
    0.05,                    !- Thickness {m}
    205,                     !- Conductivity {W/m-K}
    1500,                    !- Density {kg/m3}
    880,                     !- Specific Heat {J/kg-K}
    0.9,                     !- Thermal Absorptance
    0.43,                    !- Solar Absorptance
    0.43;                    !- Visible Absorptance

Material,
    Tabique,                 !- Name
    MediumRough,             !- Roughness
    0.14,                    !- Thickness {m}
    0.7,                     !- Conductivity {W/m-K}
    1970,                    !- Density {kg/m3}
    800,                     !- Specific Heat {J/kg-K}
    0.9,                     !- Thermal Absorptance
    0.65,                    !- Solar Absorptance
    0.65;                    !- Visible Absorptance

Material,
    CAD,                     !- Name
    Rough,                   !- Roughness
    0.1,                     !- Thickness {m}
    2,                       !- Conductivity {W/m-K}
    2400,                    !- Density {kg/m3}
    1000,                    !- Specific Heat {J/kg-K}
    0.9,                     !- Thermal Absorptance
    0.6,                     !- Solar Absorptance
    0.6;                     !- Visible Absorptance

Material,
    MorteroAD,               !- Name
    Rough,                   !- Roughness
    0.1,                     !- Thickness {m}
    0.88,                    !- Conductivity {W/m-K}
    2800,                    !- Density {kg/m3}
    896,                     !- Specific Heat {J/kg-K}
    0.9,                     !- Thermal Absorptance
    0.2,                     !- Solar Absorptance
    0.2;                     !- Visible Absorptance

Material,
    Poliestireno,            !- Name
    MediumSmooth,            !- Roughness
    0.05,                    !- Thickness {m}
    0.33,                    !- Conductivity {W/m-K}
    920,                     !- Density {kg/m3}
    2300,                    !- Specific Heat {J/kg-K}
    0.9,                     !- Thermal Absorptance
    0.3,                     !- Solar Absorptance
    0.3;                     !- Visible Absorptance


!-   ===========  ALL OBJECTS IN CLASS: MATERIAL:NOMASS ===========

Material:NoMass,
    CP02 CARPET PAD,         !- Name
    Smooth,                  !- Roughness
    0.1,                     !- Thermal Resistance {m2-K/W}
    0.9,                     !- Thermal Absorptance
    0.8,                     !- Solar Absorptance
    0.8;                     !- Visible Absorptance


!-   ===========  ALL OBJECTS IN CLASS: MATERIAL:AIRGAP ===========

Material:AirGap,
    F04 Wall air space resistance,  !- Name
    0.15;                    !- Thermal Resistance {m2-K/W}

Material:AirGap,
    F05 Ceiling air space resistance,  !- Name
    0.18;                    !- Thermal Resistance {m2-K/W}


!-   ===========  ALL OBJECTS IN CLASS: WINDOWMATERIAL:GLAZING ===========

WindowMaterial:Glazing,
    Clear 3mm,               !- Name
    SpectralAverage,         !- Optical Data Type
    ,                        !- Window Glass Spectral Data Set Name
    0.00299999999999999,     !- Thickness {m}
    0.837,                   !- Solar Transmittance at Normal Incidence
    0.075,                   !- Front Side Solar Reflectance at Normal Incidence
    0,                       !- Back Side Solar Reflectance at Normal Incidence
    0.898,                   !- Visible Transmittance at Normal Incidence
    0.081,                   !- Front Side Visible Reflectance at Normal Incidence
    0,                       !- Back Side Visible Reflectance at Normal Incidence
    0,                       !- Infrared Transmittance at Normal Incidence
    0.84,                    !- Front Side Infrared Hemispherical Emissivity
    0.84,                    !- Back Side Infrared Hemispherical Emissivity
    0.9,                     !- Conductivity {W/m-K}
    1,                       !- Dirt Correction Factor for Solar and Visible Transmittance
    No;                      !- Solar Diffusing


!-   ===========  ALL OBJECTS IN CLASS: WINDOWMATERIAL:BLIND ===========

WindowMaterial:Blind,
    Window Material Blind 1, !- Name
    Horizontal,              !- Slat Orientation
    0.025,                   !- Slat Width {m}
    0.01875,                 !- Slat Separation {m}
    0.001,                   !- Slat Thickness {m}
    45,                      !- Slat Angle {deg}
    221,                     !- Slat Conductivity {W/m-K}
    0,                       !- Slat Beam Solar Transmittance
    0.5,                     !- Front Side Slat Beam Solar Reflectance
    0.5,                     !- Back Side Slat Beam Solar Reflectance
    0,                       !- Slat Diffuse Solar Transmittance
    0.5,                     !- Front Side Slat Diffuse Solar Reflectance
    0.5,                     !- Back Side Slat Diffuse Solar Reflectance
    0,                       !- Slat Beam Visible Transmittance
    0.5,                     !- Front Side Slat Beam Visible Reflectance
    0.5,                     !- Back Side Slat Beam Visible Reflectance
    0,                       !- Slat Diffuse Visible Transmittance
    0.5,                     !- Front Side Slat Diffuse Visible Reflectance
    0.5,                     !- Back Side Slat Diffuse Visible Reflectance
    0,                       !- Slat Infrared Hemispherical Transmittance
    0.9,                     !- Front Side Slat Infrared Hemispherical Emissivity
    0.9,                     !- Back Side Slat Infrared Hemispherical Emissivity
    0.05,                    !- Blind to Glass Distance {m}
    0.5,                     !- Blind Top Opening Multiplier
    0.5,                     !- Blind Bottom Opening Multiplier
    0.5,                     !- Blind Left Side Opening Multiplier
    0.5,                     !- Blind Right Side Opening Multiplier
    0,                       !- Minimum Slat Angle {deg}
    180;                     !- Maximum Slat Angle {deg}


!-   ===========  ALL OBJECTS IN CLASS: CONSTRUCTION ===========

Construction,
    Interior Window,         !- Name
    Clear 3mm;               !- Outside Layer

Construction,
    AluminioDoor,            !- Name
    Aluminio;                !- Outside Layer

Construction,
    CAD,                     !- Name
    CAD;                     !- Outside Layer

Construction,
    Tabique,                 !- Name
    Tabique;                 !- Outside Layer

Construction,
    TechoHueco,              !- Name
    MorteroAD;               !- Outside Layer


!-   ===========  ALL OBJECTS IN CLASS: GLOBALGEOMETRYRULES ===========

GlobalGeometryRules,
    UpperLeftCorner,         !- Starting Vertex Position
    Counterclockwise,        !- Vertex Entry Direction
    Relative,                !- Coordinate System
    Relative,                !- Daylighting Reference Point Coordinate System
    Relative;                !- Rectangular Surface Coordinate System


!-   ===========  ALL OBJECTS IN CLASS: ZONE ===========

Zone,
    Thermal Zone: C1,        !- Name
    ,                        !- Direction of Relative North {deg}
    6.83516967581362,        !- X Origin {m}
    8.33790874800164,        !- Y Origin {m}
    -3.60955709766131e-016;  !- Z Origin {m}

Zone,
    Thermal Zone: C2,        !- Name
    -0,                      !- Direction of Relative North {deg}
    3.35516967581362,        !- X Origin {m}
    8.33790874800164,        !- Y Origin {m}
    3.5;                     !- Z Origin {m}

Zone,
    Thermal Zone: C2 1,      !- Name
    ,                        !- Direction of Relative North {deg}
    -0.12483032418638,       !- X Origin {m}
    4.57790874800164,        !- Y Origin {m}
    -3.60955709766131e-016;  !- Z Origin {m}

Zone,
    Thermal Zone: jorge,     !- Name
    ,                        !- Direction of Relative North {deg}
    6.83516967581362,        !- X Origin {m}
    8.33790874800164,        !- Y Origin {m}
    -3.60955709766131e-016;  !- Z Origin {m}

Zone,
    Thermal Zone: techada_C1,!- Name
    -0,                      !- Direction of Relative North {deg}
    6.83516967581362,        !- X Origin {m}
    8.33790874800164,        !- Y Origin {m}
    3.5;                     !- Z Origin {m}

Zone,
    Thermal Zone: techada_jorge,  !- Name
    -0,                      !- Direction of Relative North {deg}
    10.3151696758136,        !- X Origin {m}
    8.33790874800164,        !- Y Origin {m}
    3.5;                     !- Z Origin {m}


!-   ===========  ALL OBJECTS IN CLASS: BUILDINGSURFACE:DETAILED ===========

BuildingSurface:Detailed,
    este_C1,                 !- Name
    Wall,                    !- Surface Type
    Tabique,                 !- Construction Name
    Thermal Zone: C1,        !- Zone Name
    Surface,                 !- Outside Boundary Condition
    oeste_jorge,             !- Outside Boundary Condition Object
    NoSun,                   !- Sun Exposure
    NoWind,                  !- Wind Exposure
    ,                        !- View Factor to Ground
    ,                        !- Number of Vertices
    0,                       !- Vertex 1 X-coordinate {m}
    0,                       !- Vertex 1 Y-coordinate {m}
    3.5,                     !- Vertex 1 Z-coordinate {m}
    0,                       !- Vertex 2 X-coordinate {m}
    -3.76,                   !- Vertex 2 Y-coordinate {m}
    3,                       !- Vertex 2 Z-coordinate {m}
    0,                       !- Vertex 3 X-coordinate {m}
    -3.76,                   !- Vertex 3 Y-coordinate {m}
    0,                       !- Vertex 3 Z-coordinate {m}
    0,                       !- Vertex 4 X-coordinate {m}
    0,                       !- Vertex 4 Y-coordinate {m}
    0;                       !- Vertex 4 Z-coordinate {m}

BuildingSurface:Detailed,
    norte_C1,                !- Name
    Wall,                    !- Surface Type
    Tabique,                 !- Construction Name
    Thermal Zone: C1,        !- Zone Name
    Outdoors,                !- Outside Boundary Condition
    ,                        !- Outside Boundary Condition Object
    SunExposed,              !- Sun Exposure
    WindExposed,             !- Wind Exposure
    ,                        !- View Factor to Ground
    ,                        !- Number of Vertices
    0,                       !- Vertex 1 X-coordinate {m}
    0,                       !- Vertex 1 Y-coordinate {m}
    3.5,                     !- Vertex 1 Z-coordinate {m}
    0,                       !- Vertex 2 X-coordinate {m}
    0,                       !- Vertex 2 Y-coordinate {m}
    0,                       !- Vertex 2 Z-coordinate {m}
    -3.48,                   !- Vertex 3 X-coordinate {m}
    0,                       !- Vertex 3 Y-coordinate {m}
    0,                       !- Vertex 3 Z-coordinate {m}
    -3.48,                   !- Vertex 4 X-coordinate {m}
    0,                       !- Vertex 4 Y-coordinate {m}
    3.5;                     !- Vertex 4 Z-coordinate {m}

BuildingSurface:Detailed,
    oeste_C1,                !- Name
    Wall,                    !- Surface Type
    Tabique,                 !- Construction Name
    Thermal Zone: C1,        !- Zone Name
    Surface,                 !- Outside Boundary Condition
    este_C2,                 !- Outside Boundary Condition Object
    NoSun,                   !- Sun Exposure
    NoWind,                  !- Wind Exposure
    ,                        !- View Factor to Ground
    ,                        !- Number of Vertices
    -3.48,                   !- Vertex 1 X-coordinate {m}
    0,                       !- Vertex 1 Y-coordinate {m}
    3.5,                     !- Vertex 1 Z-coordinate {m}
    -3.48,                   !- Vertex 2 X-coordinate {m}
    0,                       !- Vertex 2 Y-coordinate {m}
    0,                       !- Vertex 2 Z-coordinate {m}
    -3.48,                   !- Vertex 3 X-coordinate {m}
    -3.76,                   !- Vertex 3 Y-coordinate {m}
    0,                       !- Vertex 3 Z-coordinate {m}
    -3.48,                   !- Vertex 4 X-coordinate {m}
    -3.76,                   !- Vertex 4 Y-coordinate {m}
    3;                       !- Vertex 4 Z-coordinate {m}

BuildingSurface:Detailed,
    suelo_C1,                !- Name
    Floor,                   !- Surface Type
    CAD,                     !- Construction Name
    Thermal Zone: C1,        !- Zone Name
    Ground,                  !- Outside Boundary Condition
    ,                        !- Outside Boundary Condition Object
    NoSun,                   !- Sun Exposure
    NoWind,                  !- Wind Exposure
    ,                        !- View Factor to Ground
    ,                        !- Number of Vertices
    0,                       !- Vertex 1 X-coordinate {m}
    0,                       !- Vertex 1 Y-coordinate {m}
    0,                       !- Vertex 1 Z-coordinate {m}
    0,                       !- Vertex 2 X-coordinate {m}
    -3.76,                   !- Vertex 2 Y-coordinate {m}
    0,                       !- Vertex 2 Z-coordinate {m}
    -3.48,                   !- Vertex 3 X-coordinate {m}
    -3.76,                   !- Vertex 3 Y-coordinate {m}
    0,                       !- Vertex 3 Z-coordinate {m}
    -3.48,                   !- Vertex 4 X-coordinate {m}
    0,                       !- Vertex 4 Y-coordinate {m}
    0;                       !- Vertex 4 Z-coordinate {m}

BuildingSurface:Detailed,
    sur_C1,                  !- Name
    Wall,                    !- Surface Type
    Tabique,                 !- Construction Name
    Thermal Zone: C1,        !- Zone Name
    Outdoors,                !- Outside Boundary Condition
    ,                        !- Outside Boundary Condition Object
    SunExposed,              !- Sun Exposure
    WindExposed,             !- Wind Exposure
    ,                        !- View Factor to Ground
    ,                        !- Number of Vertices
    -3.48,                   !- Vertex 1 X-coordinate {m}
    -3.76,                   !- Vertex 1 Y-coordinate {m}
    3,                       !- Vertex 1 Z-coordinate {m}
    -3.48,                   !- Vertex 2 X-coordinate {m}
    -3.76,                   !- Vertex 2 Y-coordinate {m}
    0,                       !- Vertex 2 Z-coordinate {m}
    0,                       !- Vertex 3 X-coordinate {m}
    -3.76,                   !- Vertex 3 Y-coordinate {m}
    0,                       !- Vertex 3 Z-coordinate {m}
    0,                       !- Vertex 4 X-coordinate {m}
    -3.76,                   !- Vertex 4 Y-coordinate {m}
    3;                       !- Vertex 4 Z-coordinate {m}

BuildingSurface:Detailed,
    techo_C1,                !- Name
    Ceiling,                 !- Surface Type
    TechoHueco,              !- Construction Name
    Thermal Zone: C1,        !- Zone Name
    Surface,                 !- Outside Boundary Condition
    TA2_C1,                  !- Outside Boundary Condition Object
    NoSun,                   !- Sun Exposure
    NoWind,                  !- Wind Exposure
    ,                        !- View Factor to Ground
    ,                        !- Number of Vertices
    0,                       !- Vertex 1 X-coordinate {m}
    -3.76,                   !- Vertex 1 Y-coordinate {m}
    3,                       !- Vertex 1 Z-coordinate {m}
    0,                       !- Vertex 2 X-coordinate {m}
    0,                       !- Vertex 2 Y-coordinate {m}
    3.5,                     !- Vertex 2 Z-coordinate {m}
    -3.48,                   !- Vertex 3 X-coordinate {m}
    0,                       !- Vertex 3 Y-coordinate {m}
    3.5,                     !- Vertex 3 Z-coordinate {m}
    -3.48,                   !- Vertex 4 X-coordinate {m}
    -3.76,                   !- Vertex 4 Y-coordinate {m}
    3;                       !- Vertex 4 Z-coordinate {m}

BuildingSurface:Detailed,
    TA1_C2,                  !- Name
    Floor,                   !- Surface Type
    TechoHueco,              !- Construction Name
    Thermal Zone: C2,        !- Zone Name
    Outdoors,                !- Outside Boundary Condition
    ,                        !- Outside Boundary Condition Object
    SunExposed,              !- Sun Exposure
    WindExposed,             !- Wind Exposure
    ,                        !- View Factor to Ground
    ,                        !- Number of Vertices
    0,                       !- Vertex 1 X-coordinate {m}
    0.703804462316465,       !- Vertex 1 Y-coordinate {m}
    0.093591018925062,       !- Vertex 1 Z-coordinate {m}
    0,                       !- Vertex 2 X-coordinate {m}
    3.0607264598339e-018,    !- Vertex 2 Y-coordinate {m}
    -7.44928082510209e-016,  !- Vertex 2 Z-coordinate {m}
    -3.48,                   !- Vertex 3 X-coordinate {m}
    3.0607264598339e-018,    !- Vertex 3 Y-coordinate {m}
    -7.44928082510209e-016,  !- Vertex 3 Z-coordinate {m}
    -3.48,                   !- Vertex 4 X-coordinate {m}
    0.703804462316465,       !- Vertex 4 Y-coordinate {m}
    0.093591018925062;       !- Vertex 4 Z-coordinate {m}

BuildingSurface:Detailed,
    TA2__C2,                 !- Name
    Floor,                   !- Surface Type
    TechoHueco,              !- Construction Name
    Thermal Zone: C2,        !- Zone Name
    Surface,                 !- Outside Boundary Condition
    techo_C2,                !- Outside Boundary Condition Object
    NoSun,                   !- Sun Exposure
    NoWind,                  !- Wind Exposure
    ,                        !- View Factor to Ground
    ,                        !- Number of Vertices
    0,                       !- Vertex 1 X-coordinate {m}
    -8.11692184767565e-018,  !- Vertex 1 Y-coordinate {m}
    -6.60872167237744e-016,  !- Vertex 1 Z-coordinate {m}
    0,                       !- Vertex 2 X-coordinate {m}
    -3.76,                   !- Vertex 2 Y-coordinate {m}
    -0.500000000000001,      !- Vertex 2 Z-coordinate {m}
    -3.48,                   !- Vertex 3 X-coordinate {m}
    -3.76,                   !- Vertex 3 Y-coordinate {m}
    -0.500000000000001,      !- Vertex 3 Z-coordinate {m}
    -3.48,                   !- Vertex 4 X-coordinate {m}
    -8.11692184767565e-018,  !- Vertex 4 Y-coordinate {m}
    -6.60872167237744e-016;  !- Vertex 4 Z-coordinate {m}

BuildingSurface:Detailed,
    TA3_C2,                  !- Name
    Floor,                   !- Surface Type
    TechoHueco,              !- Construction Name
    Thermal Zone: C2,        !- Zone Name
    Outdoors,                !- Outside Boundary Condition
    ,                        !- Outside Boundary Condition Object
    SunExposed,              !- Sun Exposure
    WindExposed,             !- Wind Exposure
    ,                        !- View Factor to Ground
    ,                        !- Number of Vertices
    0,                       !- Vertex 1 X-coordinate {m}
    -3.76,                   !- Vertex 1 Y-coordinate {m}
    -0.500000000000001,      !- Vertex 1 Z-coordinate {m}
    0,                       !- Vertex 2 X-coordinate {m}
    -5.75930130430799,       !- Vertex 2 Y-coordinate {m}
    -0.76586453514734,       !- Vertex 2 Z-coordinate {m}
    -3.48,                   !- Vertex 3 X-coordinate {m}
    -5.75930130430799,       !- Vertex 3 Y-coordinate {m}
    -0.76586453514734,       !- Vertex 3 Z-coordinate {m}
    -3.48,                   !- Vertex 4 X-coordinate {m}
    -3.76,                   !- Vertex 4 Y-coordinate {m}
    -0.500000000000001;      !- Vertex 4 Z-coordinate {m}

BuildingSurface:Detailed,
    TE_C2,                   !- Name
    Wall,                    !- Surface Type
    TechoHueco,              !- Construction Name
    Thermal Zone: C2,        !- Zone Name
    Surface,                 !- Outside Boundary Condition
    TO_C1,                   !- Outside Boundary Condition Object
    NoSun,                   !- Sun Exposure
    NoWind,                  !- Wind Exposure
    ,                        !- View Factor to Ground
    ,                        !- Number of Vertices
    0,                       !- Vertex 1 X-coordinate {m}
    0.664258961362213,       !- Vertex 1 Y-coordinate {m}
    0.390973186101036,       !- Vertex 1 Z-coordinate {m}
    0,                       !- Vertex 2 X-coordinate {m}
    -5.79884680526224,       !- Vertex 2 Y-coordinate {m}
    -0.468482367971365,      !- Vertex 2 Z-coordinate {m}
    0,                       !- Vertex 3 X-coordinate {m}
    -5.75930130430799,       !- Vertex 3 Y-coordinate {m}
    -0.76586453514734,       !- Vertex 3 Z-coordinate {m}
    0,                       !- Vertex 4 X-coordinate {m}
    0.703804462316465,       !- Vertex 4 Y-coordinate {m}
    0.093591018925062;       !- Vertex 4 Z-coordinate {m}

BuildingSurface:Detailed,
    TN_C2,                   !- Name
    Wall,                    !- Surface Type
    TechoHueco,              !- Construction Name
    Thermal Zone: C2,        !- Zone Name
    Outdoors,                !- Outside Boundary Condition
    ,                        !- Outside Boundary Condition Object
    SunExposed,              !- Sun Exposure
    WindExposed,             !- Wind Exposure
    ,                        !- View Factor to Ground
    ,                        !- Number of Vertices
    0,                       !- Vertex 1 X-coordinate {m}
    0.664258961362213,       !- Vertex 1 Y-coordinate {m}
    0.390973186101036,       !- Vertex 1 Z-coordinate {m}
    0,                       !- Vertex 2 X-coordinate {m}
    0.703804462316465,       !- Vertex 2 Y-coordinate {m}
    0.093591018925062,       !- Vertex 2 Z-coordinate {m}
    -3.48,                   !- Vertex 3 X-coordinate {m}
    0.703804462316465,       !- Vertex 3 Y-coordinate {m}
    0.093591018925062,       !- Vertex 3 Z-coordinate {m}
    -3.48,                   !- Vertex 4 X-coordinate {m}
    0.664258961362213,       !- Vertex 4 Y-coordinate {m}
    0.390973186101036;       !- Vertex 4 Z-coordinate {m}
